variable    seed index 12345

# settings
variable    rho equal 0.10   # density
variable    L equal 100        # Simulation box length
variable    W equal 50       # Simulation box width
variable    mass equal 10
variable    mu_x equal 1
variable    Dx equal 0
variable    v0 equal 1
variable    lp equal 50
variable    lr equal 2
variable    g equal 0.1
# variable    g equal 0
variable    chirality equal -1  # +1 for CCW ABPs, -1 for CW
variable    Bq equal 1  # Lorentz force magnitude (magnetic field times charge)
# -*-*-*-*-*-*--*-*-*--*-*-*-
variable    Dtheta equal 1/50
variable    omega equal -1*1/2
variable    gamma_x equal 1/1
variable    sigma equal 2
variable    rcut equal 2*2^(1.0/6.0)
variable    dt equal 0.01

# problem setup
units       lj
dimension   2
atom_style  atomic
neigh_modify    delay 0 every 1
# newton          on off
atom_modify     map yes # Create atom map to be able to index into atom positions and velocities

# Make ABPs:
lattice         sq 0.1
Lattice spacing in x,y,z = 3.1622777 3.1622777 3.1622777
region          simbox block 0 $L 0 $W -0.1 0.1 units box # Box units, rather than lattice
region          simbox block 0 100 0 $W -0.1 0.1 units box
region          simbox block 0 100 0 50 -0.1 0.1 units box
create_box      2 simbox
Created orthogonal box = (0 0 -0.1) to (100 50 0.1)
create_atoms    2 single 0 0 0 # Insert disc obstacle
Created 1 atoms
create_atoms    1 box # Insert ABPs on lattice
Created 512 atoms

group           abp type 1
512 atoms in group abp
group           disc type 2
1 atoms in group disc

# Write out the simulation parameters for post-processing:
variable        ly equal ly
variable        lx equal lx
print           '{'                                 file   params.json
{
   "mass": 10,
   "g": 0.1,
   "rho": 0.1,
   "lx": 100,
   "ly": 50,
   "Dtheta": 0.02,
   "v0":1,
   "lp": 50,
   "lr": 2,
   "gamma_x":1,
   "Dx":0,
   "omega":-0.5,
   "rcut": 2.24492409661875,
   "dt": 0.01,
print           '}'                                 append params.json
}

# Define interactions
pair_style      lj/cut 1
pair_modify     shift yes
# pair_coeff      * * 0 0
pair_coeff      * * 1 2 2.24492409661875
# pair_coeff      1 1 1 0
mass            1 1.0
mass            2 10
delete_atoms    overlap 0.5 abp disc  # NOW: Delete ABPs overlapping the disc object (with random rotation)
System init for delete_atoms ...
Generated 0 of 1 mixed pair_coeff terms from geometric mixing rule
Deleted 1 atoms, new total = 512

# Define fixes that affect dynamics:

# * * * * cABP Bath * * * *
# fix             1 abp property/atom d_thetavec  # Initialize vector of directors (this gets used inside fix abp)
# set             atom * d_thetavec v_theta_init  # Initialize ABPs with random directions

# * * * * Eqbm Lorentz Bath * * * *
variable        fxlorentz atom -v_Bq*vy
variable        fylorentz atom v_Bq*vx
fix             lorentz abp addforce v_fxlorentz v_fylorentz 0
fix             1 abp langevin 1.0 1.0 10.0 12345
fix             2 abp nve
velocity        all create 1.0 12345 loop local

# * * * * Disc dynamics * * * *
fix             3 disc nve
fix             2d all enforce2d
fix             fx disc addforce $g 0.0 0.0
fix             fx disc addforce 0.1 0.0 0.0

# Equilibration run
write_dump      all xyz init.xyz
thermo          1000
thermo_style    custom step temp press cpu spcpu density lx
timestep        0.01
run             10000
Generated 0 of 1 mixed pair_coeff terms from geometric mixing rule
Step          Temp          Press           CPU           S/CPU         Density           Lx
0   1              0.15249032     0              0              0.1042         100
Averages over the last 6 of 11 rows, steps 5000 to 10000:
Temp Press Density Lx
1.05565 0.237683 0.1042 100
Loop time of 0.799959 on 1 procs for 10000 steps with 512 atoms

write_dump      all xyz eq.xyz

# Production run:
label           production_run
log             out/log.out
